Version 4
SHEET 1 1124 680
WIRE 96 16 48 16
WIRE 224 16 176 16
WIRE 352 16 304 16
WIRE 464 16 432 16
WIRE 688 16 544 16
WIRE 688 32 688 16
WIRE 880 48 880 16
WIRE 48 96 48 16
WIRE 544 112 544 16
WIRE 688 128 688 112
WIRE 880 176 880 128
WIRE 48 208 48 176
WIRE 464 208 464 16
WIRE 464 208 48 208
WIRE 544 208 544 192
WIRE 544 208 464 208
WIRE 688 208 544 208
WIRE 48 240 48 208
FLAG 48 240 0
FLAG 880 16 velocity
FLAG 880 176 0
SYMBOL voltage 48 80 R0
WINDOW 123 0 0 Left 0
WINDOW 39 0 0 Left 0
SYMATTR InstName V1
SYMATTR Value PULSE(0 24 10u 0u 0u 10u 20u)
SYMBOL res 192 0 R90
WINDOW 0 0 56 VBottom 2
WINDOW 3 32 56 VTop 2
SYMATTR InstName R1
SYMATTR Value 0.3R
SYMBOL ind 320 0 R90
WINDOW 0 5 56 VBottom 2
WINDOW 3 32 56 VTop 2
SYMATTR InstName L1
SYMATTR Value 82.3µ
SYMBOL bv 336 16 R270
WINDOW 0 32 56 VTop 2
WINDOW 3 -32 56 VBottom 2
SYMATTR InstName B1
SYMATTR Value V=i(R1)*0.0302
SYMBOL bv 544 96 R0
SYMATTR InstName B2
SYMATTR Value V=0.0302*i(R2)
SYMBOL res 672 16 R0
SYMATTR InstName R2
SYMATTR Value 5µR
SYMBOL ind 672 112 R0
SYMATTR InstName L2
SYMATTR Value 1.24m
SYMBOL bv 880 32 R0
SYMATTR InstName B3
SYMATTR Value V=i(R1)*0.075/26
TEXT 14 264 Left 2 !.tran 2000us
